# Clean URL redirects for Render static hosting
# Generated: 2026-06-05T10:01:32.917Z
# NOTE: Render uses render.yaml for routing, not _redirects (that is Netlify)
# This file is kept for reference only

/feature/ls-dyna-engineering-workflow  /feature/ls-dyna-engineering-workflow.html  200!
/blog/ls-dyna-feature-insights  /blog/ls-dyna-feature-insights.html  200!
/webinars-and-updates  /webinars-and-updates.html  200!
/privacy  /privacy.html  200!
/accessibility  /accessibility.html  200!
/terms  /terms.html  200!
/contact  /contact.html  200!

# Legal pages - redirect old .html URLs to friendly URLs
/privacy.html  /privacy  301
/accessibility.html  /accessibility  301
/terms.html  /terms  301

/  /index.html  200!

# SPA fallback - serve index.html for all unmatched routes
/*  /index.html  200
